
     RDKit          3D

123  0  0  0  0  0  0  0  0  0999 V2000
    0.4216   -2.9523    0.6855 C   0  0  0  0  0  0  0  0  0  0  0  0
   -0.8187   -3.3228   -0.1475 C   0  0  0  0  0  0  0  0  0  0  0  0
   -0.5047   -4.7214   -0.7489 C   0  0  0  0  0  0  0  0  0  0  0  0
    0.8117   -4.7832   -1.5166 C   0  0  0  0  0  0  0  0  0  0  0  0
    1.6887   -2.9628   -0.1392 C   0  0  0  0  0  0  0  0  0  0  0  0
   -1.3332   -5.0132   -1.4139 H   0  0  0  0  0  0  0  0  0  0  0  0
    0.7808   -4.1679   -2.4342 H   0  0  0  0  0  0  0  0  0  0  0  0
    1.0138   -5.8201   -1.8231 H   0  0  0  0  0  0  0  0  0  0  0  0
    1.6219   -2.2553   -0.9855 H   0  0  0  0  0  0  0  0  0  0  0  0
    2.5501   -2.6702    0.4667 H   0  0  0  0  0  0  0  0  0  0  0  0
   -0.4603   -5.4516    0.0753 H   0  0  0  0  0  0  0  0  0  0  0  0
   -1.0706   -2.3146   -1.2845 C   0  0  0  0  0  0  0  0  0  0  0  0
   -1.3902   -1.3438   -0.8775 H   0  0  0  0  0  0  0  0  0  0  0  0
   -1.8903   -2.6821   -1.9195 H   0  0  0  0  0  0  0  0  0  0  0  0
   -0.1993   -2.1476   -1.9300 H   0  0  0  0  0  0  0  0  0  0  0  0
   -2.1175   -3.4228    0.6495 C   0  0  0  0  0  0  0  0  0  0  0  0
   -2.9291   -3.7434   -0.0225 H   0  0  0  0  0  0  0  0  0  0  0  0
   -2.3934   -2.4366    1.0508 H   0  0  0  0  0  0  0  0  0  0  0  0
   -2.0549   -4.1392    1.4806 H   0  0  0  0  0  0  0  0  0  0  0  0
    0.5870   -3.3209    2.1036 C   0  0  0  0  0  0  0  0  0  0  0  0
    1.7769   -3.9463    2.5449 C   0  0  0  0  0  0  0  0  0  0  0  0
   -0.3692   -2.9867    3.0881 C   0  0  0  0  0  0  0  0  0  0  0  0
    1.9678   -4.2655    3.8854 C   0  0  0  0  0  0  0  0  0  0  0  0
    2.5603   -4.1967    1.8283 H   0  0  0  0  0  0  0  0  0  0  0  0
   -0.1661   -3.2940    4.4291 C   0  0  0  0  0  0  0  0  0  0  0  0
   -1.2612   -2.4261    2.8072 H   0  0  0  0  0  0  0  0  0  0  0  0
    0.9961   -3.9490    4.8358 C   0  0  0  0  0  0  0  0  0  0  0  0
    2.8894   -4.7663    4.1887 H   0  0  0  0  0  0  0  0  0  0  0  0
   -0.9189   -3.0144    5.1678 H   0  0  0  0  0  0  0  0  0  0  0  0
    1.1472   -4.1948    5.8882 H   0  0  0  0  0  0  0  0  0  0  0  0
    3.4437   -4.7262   -1.0761 S   0  0  0  0  0  0  0  0  0  0  0  0
    3.7009   -4.3977   -2.4696 O   0  0  0  0  0  0  0  0  0  0  0  0
    4.2956   -4.1705   -0.0320 O   0  0  0  0  0  0  0  0  0  0  0  0
    3.4110   -6.4965   -0.9319 C   0  0  0  0  0  0  0  0  0  0  0  0
    3.0403   -7.0869    0.2777 C   0  0  0  0  0  0  0  0  0  0  0  0
    3.8031   -7.2600   -2.0246 C   0  0  0  0  0  0  0  0  0  0  0  0
    3.0647   -8.4713    0.3798 C   0  0  0  0  0  0  0  0  0  0  0  0
    2.7232   -6.4655    1.1175 H   0  0  0  0  0  0  0  0  0  0  0  0
    3.8257   -8.6493   -1.9005 C   0  0  0  0  0  0  0  0  0  0  0  0
    4.0807   -6.7610   -2.9540 H   0  0  0  0  0  0  0  0  0  0  0  0
    3.4605   -9.2725   -0.7040 C   0  0  0  0  0  0  0  0  0  0  0  0
    2.7710   -8.9467    1.3181 H   0  0  0  0  0  0  0  0  0  0  0  0
    4.1314   -9.2594   -2.7525 H   0  0  0  0  0  0  0  0  0  0  0  0
    3.4926  -10.7704   -0.5629 C   0  0  0  0  0  0  0  0  0  0  0  0
    4.2654  -11.0744    0.1587 H   0  0  0  0  0  0  0  0  0  0  0  0
    3.7110  -11.2583   -1.5209 H   0  0  0  0  0  0  0  0  0  0  0  0
    2.5301  -11.1505   -0.1920 H   0  0  0  0  0  0  0  0  0  0  0  0
    1.8828   -4.3347   -0.6319 N   0  0  0  0  0  0  0  0  0  0  0  0
    2.3327   -1.0259    1.4293 O   0  0  0  0  0  0  0  0  0  0  0  0
    0.7124   -1.6023    3.4632 O   0  0  0  0  0  0  0  0  0  0  0  0
    1.0519    1.6966   -2.1853 O   0  0  0  0  0  0  0  0  0  0  0  0
   -1.1842    2.0885   -3.6097 O   0  0  0  0  0  0  0  0  0  0  0  0
    2.7102   -0.2085    0.4192 C   0  0  0  0  0  0  0  0  0  0  0  0
    4.0564    0.0743    0.1656 C   0  0  0  0  0  0  0  0  0  0  0  0
    4.3942    0.8927   -0.9068 C   0  0  0  0  0  0  0  0  0  0  0  0
    3.4081    1.4380   -1.7266 C   0  0  0  0  0  0  0  0  0  0  0  0
    2.0625    1.1660   -1.4608 C   0  0  0  0  0  0  0  0  0  0  0  0
    1.6989    0.3244   -0.3944 C   0  0  0  0  0  0  0  0  0  0  0  0
    2.8557   -0.8478    2.7460 C   0  0  0  0  0  0  0  0  0  0  0  0
    3.5762   -2.1155    3.1630 C   0  0  0  0  0  0  0  0  0  0  0  0
    1.6161   -0.5350    3.6258 C   0  0  0  0  0  0  0  0  0  0  0  0
    2.0225   -0.4739    5.0929 C   0  0  0  0  0  0  0  0  0  0  0  0
    2.8241    0.5756    5.5557 C   0  0  0  0  0  0  0  0  0  0  0  0
    3.2479    0.6097    6.8818 C   0  0  0  0  0  0  0  0  0  0  0  0
    2.8662   -0.4011    7.7647 C   0  0  0  0  0  0  0  0  0  0  0  0
    2.0589   -1.4419    7.3107 C   0  0  0  0  0  0  0  0  0  0  0  0
    1.6400   -1.4821    5.9802 C   0  0  0  0  0  0  0  0  0  0  0  0
    0.9347    0.7751    3.2029 C   0  0  0  0  0  0  0  0  0  0  0  0
    1.5975    1.8346    2.5761 C   0  0  0  0  0  0  0  0  0  0  0  0
    0.9028    2.9854    2.1989 C   0  0  0  0  0  0  0  0  0  0  0  0
   -0.4603    3.0981    2.4547 C   0  0  0  0  0  0  0  0  0  0  0  0
   -1.1264    2.0542    3.0974 C   0  0  0  0  0  0  0  0  0  0  0  0
   -0.4348    0.9047    3.4655 C   0  0  0  0  0  0  0  0  0  0  0  0
    1.1979    1.9532   -3.5791 C   0  0  0  0  0  0  0  0  0  0  0  0
    1.3791    3.4399   -3.8242 C   0  0  0  0  0  0  0  0  0  0  0  0
   -0.1081    1.3902   -4.1927 C   0  0  0  0  0  0  0  0  0  0  0  0
   -0.1329    1.6436   -5.6942 C   0  0  0  0  0  0  0  0  0  0  0  0
   -0.9999    2.5915   -6.2417 C   0  0  0  0  0  0  0  0  0  0  0  0
   -0.9817    2.8488   -7.6132 C   0  0  0  0  0  0  0  0  0  0  0  0
   -0.0965    2.1682   -8.4462 C   0  0  0  0  0  0  0  0  0  0  0  0
    0.7694    1.2184   -7.9030 C   0  0  0  0  0  0  0  0  0  0  0  0
    0.7475    0.9546   -6.5358 C   0  0  0  0  0  0  0  0  0  0  0  0
   -0.2560   -0.1084   -3.8896 C   0  0  0  0  0  0  0  0  0  0  0  0
    0.8227   -0.9596   -3.6239 C   0  0  0  0  0  0  0  0  0  0  0  0
    0.6081   -2.3025   -3.3106 C   0  0  0  0  0  0  0  0  0  0  0  0
   -0.6856   -2.8164   -3.2676 C   0  0  0  0  0  0  0  0  0  0  0  0
   -1.7662   -1.9792   -3.5460 C   0  0  0  0  0  0  0  0  0  0  0  0
   -1.5521   -0.6373   -3.8523 C   0  0  0  0  0  0  0  0  0  0  0  0
    0.5145   -1.6440    2.5142 H   0  0  0  0  0  0  0  0  0  0  0  0
   -1.0806    1.9960   -2.6506 H   0  0  0  0  0  0  0  0  0  0  0  0
    4.8257   -0.3677    0.7996 H   0  0  0  0  0  0  0  0  0  0  0  0
    5.4432    1.1107   -1.1110 H   0  0  0  0  0  0  0  0  0  0  0  0
    3.6788    2.0952   -2.5527 H   0  0  0  0  0  0  0  0  0  0  0  0
    3.5530    0.0037    2.7596 H   0  0  0  0  0  0  0  0  0  0  0  0
    2.8589   -2.9458    3.2050 H   0  0  0  0  0  0  0  0  0  0  0  0
    4.0386   -1.9959    4.1512 H   0  0  0  0  0  0  0  0  0  0  0  0
    4.3562   -2.3577    2.4285 H   0  0  0  0  0  0  0  0  0  0  0  0
    3.1062    1.3839    4.8770 H   0  0  0  0  0  0  0  0  0  0  0  0
    3.8717    1.4344    7.2300 H   0  0  0  0  0  0  0  0  0  0  0  0
    3.1933   -0.3727    8.8051 H   0  0  0  0  0  0  0  0  0  0  0  0
    1.7509   -2.2325    7.9971 H   0  0  0  0  0  0  0  0  0  0  0  0
    1.0118   -2.2937    5.6152 H   0  0  0  0  0  0  0  0  0  0  0  0
    2.6625    1.7755    2.3463 H   0  0  0  0  0  0  0  0  0  0  0  0
    1.4355    3.7917    1.6922 H   0  0  0  0  0  0  0  0  0  0  0  0
   -1.0034    3.9950    2.1531 H   0  0  0  0  0  0  0  0  0  0  0  0
   -2.1944    2.1332    3.3065 H   0  0  0  0  0  0  0  0  0  0  0  0
   -0.9535    0.0778    3.9518 H   0  0  0  0  0  0  0  0  0  0  0  0
    2.0620    1.3964   -3.9729 H   0  0  0  0  0  0  0  0  0  0  0  0
    0.4786    3.9781   -3.5006 H   0  0  0  0  0  0  0  0  0  0  0  0
    1.5453    3.6390   -4.8910 H   0  0  0  0  0  0  0  0  0  0  0  0
    2.2386    3.8151   -3.2527 H   0  0  0  0  0  0  0  0  0  0  0  0
   -1.6863    3.1212   -5.5823 H   0  0  0  0  0  0  0  0  0  0  0  0
   -1.6658    3.5885   -8.0321 H   0  0  0  0  0  0  0  0  0  0  0  0
   -0.0837    2.3719   -9.5180 H   0  0  0  0  0  0  0  0  0  0  0  0
    1.4597    0.6734   -8.5487 H   0  0  0  0  0  0  0  0  0  0  0  0
    1.4112    0.1919   -6.1214 H   0  0  0  0  0  0  0  0  0  0  0  0
    1.8482   -0.5867   -3.6267 H   0  0  0  0  0  0  0  0  0  0  0  0
    1.4613   -2.9440   -3.0856 H   0  0  0  0  0  0  0  0  0  0  0  0
   -0.8520   -3.8642   -3.0141 H   0  0  0  0  0  0  0  0  0  0  0  0
   -2.7838   -2.3717   -3.5177 H   0  0  0  0  0  0  0  0  0  0  0  0
   -2.3937    0.0269   -4.0524 H   0  0  0  0  0  0  0  0  0  0  0  0
    0.0000    0.0000    0.0000 S   0  0  0  0  0  0  0  0  0  0  0  0
    0.1998   -1.3990    0.3248 H   0  0  0  0  0  0  0  0  0  0  0  0
M  END
