
     RDKit          3D

123  0  0  0  0  0  0  0  0  0999 V2000
    0.4216   -2.9523    0.6855 C   0  0  0  0  0  0  0  0  0  0  0  0
   -0.0476   -3.3471   -0.7264 C   0  0  0  0  0  0  0  0  0  0  0  0
   -0.7685   -4.7131   -0.5508 C   0  0  0  0  0  0  0  0  0  0  0  0
   -1.8739   -4.6986    0.4997 C   0  0  0  0  0  0  0  0  0  0  0  0
   -0.7228   -2.8868    1.6713 C   0  0  0  0  0  0  0  0  0  0  0  0
   -1.1879   -5.0178   -1.5230 H   0  0  0  0  0  0  0  0  0  0  0  0
   -2.7212   -4.0576    0.1950 H   0  0  0  0  0  0  0  0  0  0  0  0
   -2.2661   -5.7167    0.6394 H   0  0  0  0  0  0  0  0  0  0  0  0
   -1.4879   -2.1573    1.3493 H   0  0  0  0  0  0  0  0  0  0  0  0
   -0.3692   -2.5782    2.6585 H   0  0  0  0  0  0  0  0  0  0  0  0
   -0.0193   -5.4655   -0.2559 H   0  0  0  0  0  0  0  0  0  0  0  0
   -1.0281   -2.3159   -1.3164 C   0  0  0  0  0  0  0  0  0  0  0  0
   -0.5094   -1.3716   -1.5387 H   0  0  0  0  0  0  0  0  0  0  0  0
   -1.4242   -2.6968   -2.2694 H   0  0  0  0  0  0  0  0  0  0  0  0
   -1.8833   -2.0946   -0.6657 H   0  0  0  0  0  0  0  0  0  0  0  0
    1.0746   -3.5234   -1.7471 C   0  0  0  0  0  0  0  0  0  0  0  0
    0.6425   -3.8559   -2.7040 H   0  0  0  0  0  0  0  0  0  0  0  0
    1.5761   -2.5617   -1.9295 H   0  0  0  0  0  0  0  0  0  0  0  0
    1.8258   -4.2615   -1.4330 H   0  0  0  0  0  0  0  0  0  0  0  0
    1.7216   -3.3567    1.2517 C   0  0  0  0  0  0  0  0  0  0  0  0
    1.7889   -3.9467    2.5359 C   0  0  0  0  0  0  0  0  0  0  0  0
    2.9460   -3.0911    0.5992 C   0  0  0  0  0  0  0  0  0  0  0  0
    3.0094   -4.2983    3.1034 C   0  0  0  0  0  0  0  0  0  0  0  0
    0.8732   -4.1436    3.0950 H   0  0  0  0  0  0  0  0  0  0  0  0
    4.1640   -3.4304    1.1782 C   0  0  0  0  0  0  0  0  0  0  0  0
    2.9471   -2.5588   -0.3523 H   0  0  0  0  0  0  0  0  0  0  0  0
    4.2046   -4.0502    2.4269 C   0  0  0  0  0  0  0  0  0  0  0  0
    3.0239   -4.7705    4.0878 H   0  0  0  0  0  0  0  0  0  0  0  0
    5.0936   -3.2039    0.6537 H   0  0  0  0  0  0  0  0  0  0  0  0
    5.1625   -4.3214    2.8735 H   0  0  0  0  0  0  0  0  0  0  0  0
   -2.1812   -4.5489    3.1470 S   0  0  0  0  0  0  0  0  0  0  0  0
   -3.5768   -4.1683    2.9944 O   0  0  0  0  0  0  0  0  0  0  0  0
   -1.3938   -3.9912    4.2396 O   0  0  0  0  0  0  0  0  0  0  0  0
   -2.1050   -6.3227    3.2095 C   0  0  0  0  0  0  0  0  0  0  0  0
   -0.8649   -6.9638    3.2097 C   0  0  0  0  0  0  0  0  0  0  0  0
   -3.2935   -7.0363    3.3035 C   0  0  0  0  0  0  0  0  0  0  0  0
   -0.8295   -8.3486    3.3035 C   0  0  0  0  0  0  0  0  0  0  0  0
    0.0543   -6.3814    3.1213 H   0  0  0  0  0  0  0  0  0  0  0  0
   -3.2367   -8.4267    3.4018 C   0  0  0  0  0  0  0  0  0  0  0  0
   -4.2426   -6.4987    3.2950 H   0  0  0  0  0  0  0  0  0  0  0  0
   -2.0119   -9.1000    3.4046 C   0  0  0  0  0  0  0  0  0  0  0  0
    0.1335   -8.8636    3.2983 H   0  0  0  0  0  0  0  0  0  0  0  0
   -4.1640   -8.9980    3.4755 H   0  0  0  0  0  0  0  0  0  0  0  0
   -1.9458  -10.5990    3.5202 C   0  0  0  0  0  0  0  0  0  0  0  0
   -1.4806  -10.8933    4.4727 H   0  0  0  0  0  0  0  0  0  0  0  0
   -2.9456  -11.0485    3.4767 H   0  0  0  0  0  0  0  0  0  0  0  0
   -1.3374  -11.0286    2.7117 H   0  0  0  0  0  0  0  0  0  0  0  0
   -1.3049   -4.2342    1.7614 N   0  0  0  0  0  0  0  0  0  0  0  0
    2.3327   -1.0259    1.4293 O   0  0  0  0  0  0  0  0  0  0  0  0
    0.7124   -1.6023    3.4632 O   0  0  0  0  0  0  0  0  0  0  0  0
    1.0519    1.6966   -2.1853 O   0  0  0  0  0  0  0  0  0  0  0  0
   -1.1842    2.0885   -3.6097 O   0  0  0  0  0  0  0  0  0  0  0  0
    2.7102   -0.2085    0.4192 C   0  0  0  0  0  0  0  0  0  0  0  0
    4.0564    0.0743    0.1656 C   0  0  0  0  0  0  0  0  0  0  0  0
    4.3942    0.8927   -0.9068 C   0  0  0  0  0  0  0  0  0  0  0  0
    3.4081    1.4380   -1.7266 C   0  0  0  0  0  0  0  0  0  0  0  0
    2.0625    1.1660   -1.4608 C   0  0  0  0  0  0  0  0  0  0  0  0
    1.6989    0.3244   -0.3944 C   0  0  0  0  0  0  0  0  0  0  0  0
    2.8557   -0.8478    2.7460 C   0  0  0  0  0  0  0  0  0  0  0  0
    3.5762   -2.1155    3.1630 C   0  0  0  0  0  0  0  0  0  0  0  0
    1.6161   -0.5350    3.6258 C   0  0  0  0  0  0  0  0  0  0  0  0
    2.0225   -0.4739    5.0929 C   0  0  0  0  0  0  0  0  0  0  0  0
    2.8241    0.5756    5.5557 C   0  0  0  0  0  0  0  0  0  0  0  0
    3.2479    0.6097    6.8818 C   0  0  0  0  0  0  0  0  0  0  0  0
    2.8662   -0.4011    7.7647 C   0  0  0  0  0  0  0  0  0  0  0  0
    2.0589   -1.4419    7.3107 C   0  0  0  0  0  0  0  0  0  0  0  0
    1.6400   -1.4821    5.9802 C   0  0  0  0  0  0  0  0  0  0  0  0
    0.9347    0.7751    3.2029 C   0  0  0  0  0  0  0  0  0  0  0  0
    1.5975    1.8346    2.5761 C   0  0  0  0  0  0  0  0  0  0  0  0
    0.9028    2.9854    2.1989 C   0  0  0  0  0  0  0  0  0  0  0  0
   -0.4603    3.0981    2.4547 C   0  0  0  0  0  0  0  0  0  0  0  0
   -1.1264    2.0542    3.0974 C   0  0  0  0  0  0  0  0  0  0  0  0
   -0.4348    0.9047    3.4655 C   0  0  0  0  0  0  0  0  0  0  0  0
    1.1979    1.9532   -3.5791 C   0  0  0  0  0  0  0  0  0  0  0  0
    1.3791    3.4399   -3.8242 C   0  0  0  0  0  0  0  0  0  0  0  0
   -0.1081    1.3902   -4.1927 C   0  0  0  0  0  0  0  0  0  0  0  0
   -0.1329    1.6436   -5.6942 C   0  0  0  0  0  0  0  0  0  0  0  0
   -0.9999    2.5915   -6.2417 C   0  0  0  0  0  0  0  0  0  0  0  0
   -0.9817    2.8488   -7.6132 C   0  0  0  0  0  0  0  0  0  0  0  0
   -0.0965    2.1682   -8.4462 C   0  0  0  0  0  0  0  0  0  0  0  0
    0.7694    1.2184   -7.9030 C   0  0  0  0  0  0  0  0  0  0  0  0
    0.7475    0.9546   -6.5358 C   0  0  0  0  0  0  0  0  0  0  0  0
   -0.2560   -0.1084   -3.8896 C   0  0  0  0  0  0  0  0  0  0  0  0
    0.8227   -0.9596   -3.6239 C   0  0  0  0  0  0  0  0  0  0  0  0
    0.6081   -2.3025   -3.3106 C   0  0  0  0  0  0  0  0  0  0  0  0
   -0.6856   -2.8164   -3.2676 C   0  0  0  0  0  0  0  0  0  0  0  0
   -1.7662   -1.9792   -3.5460 C   0  0  0  0  0  0  0  0  0  0  0  0
   -1.5521   -0.6373   -3.8523 C   0  0  0  0  0  0  0  0  0  0  0  0
    0.5145   -1.6440    2.5142 H   0  0  0  0  0  0  0  0  0  0  0  0
   -1.0806    1.9960   -2.6506 H   0  0  0  0  0  0  0  0  0  0  0  0
    4.8257   -0.3677    0.7996 H   0  0  0  0  0  0  0  0  0  0  0  0
    5.4432    1.1107   -1.1110 H   0  0  0  0  0  0  0  0  0  0  0  0
    3.6788    2.0952   -2.5527 H   0  0  0  0  0  0  0  0  0  0  0  0
    3.5530    0.0037    2.7596 H   0  0  0  0  0  0  0  0  0  0  0  0
    2.8589   -2.9458    3.2050 H   0  0  0  0  0  0  0  0  0  0  0  0
    4.0386   -1.9959    4.1512 H   0  0  0  0  0  0  0  0  0  0  0  0
    4.3562   -2.3577    2.4285 H   0  0  0  0  0  0  0  0  0  0  0  0
    3.1062    1.3839    4.8770 H   0  0  0  0  0  0  0  0  0  0  0  0
    3.8717    1.4344    7.2300 H   0  0  0  0  0  0  0  0  0  0  0  0
    3.1933   -0.3727    8.8051 H   0  0  0  0  0  0  0  0  0  0  0  0
    1.7509   -2.2325    7.9971 H   0  0  0  0  0  0  0  0  0  0  0  0
    1.0118   -2.2937    5.6152 H   0  0  0  0  0  0  0  0  0  0  0  0
    2.6625    1.7755    2.3463 H   0  0  0  0  0  0  0  0  0  0  0  0
    1.4355    3.7917    1.6922 H   0  0  0  0  0  0  0  0  0  0  0  0
   -1.0034    3.9950    2.1531 H   0  0  0  0  0  0  0  0  0  0  0  0
   -2.1944    2.1332    3.3065 H   0  0  0  0  0  0  0  0  0  0  0  0
   -0.9535    0.0778    3.9518 H   0  0  0  0  0  0  0  0  0  0  0  0
    2.0620    1.3964   -3.9729 H   0  0  0  0  0  0  0  0  0  0  0  0
    0.4786    3.9781   -3.5006 H   0  0  0  0  0  0  0  0  0  0  0  0
    1.5453    3.6390   -4.8910 H   0  0  0  0  0  0  0  0  0  0  0  0
    2.2386    3.8151   -3.2527 H   0  0  0  0  0  0  0  0  0  0  0  0
   -1.6863    3.1212   -5.5823 H   0  0  0  0  0  0  0  0  0  0  0  0
   -1.6658    3.5885   -8.0321 H   0  0  0  0  0  0  0  0  0  0  0  0
   -0.0837    2.3719   -9.5180 H   0  0  0  0  0  0  0  0  0  0  0  0
    1.4597    0.6734   -8.5487 H   0  0  0  0  0  0  0  0  0  0  0  0
    1.4112    0.1919   -6.1214 H   0  0  0  0  0  0  0  0  0  0  0  0
    1.8482   -0.5867   -3.6267 H   0  0  0  0  0  0  0  0  0  0  0  0
    1.4613   -2.9440   -3.0856 H   0  0  0  0  0  0  0  0  0  0  0  0
   -0.8520   -3.8642   -3.0141 H   0  0  0  0  0  0  0  0  0  0  0  0
   -2.7838   -2.3717   -3.5177 H   0  0  0  0  0  0  0  0  0  0  0  0
   -2.3937    0.0269   -4.0524 H   0  0  0  0  0  0  0  0  0  0  0  0
    0.0000    0.0000    0.0000 S   0  0  0  0  0  0  0  0  0  0  0  0
    0.1998   -1.3990    0.3248 H   0  0  0  0  0  0  0  0  0  0  0  0
M  END
