 energy: -183.324993814416 gnorm: 0.000654981198 xtb: 6.6.1 (8d0f1dd)
          08082420503D

123  0  0     0  0            999 V2000
    0.4216   -2.9523    0.6855 C   0  0  0  0  0  0  0  0  0  0  0  0
   -0.5890   -3.5920   -0.2717 C   0  0  0  0  0  0  0  0  0  0  0  0
   -0.1059   -5.0511   -0.4598 C   0  0  0  0  0  0  0  0  0  0  0  0
    1.3258   -5.1297   -0.9718 C   0  0  0  0  0  0  0  0  0  0  0  0
    1.8443   -3.0982    0.2190 C   0  0  0  0  0  0  0  0  0  0  0  0
   -0.7631   -5.5602   -1.1658 H   0  0  0  0  0  0  0  0  0  0  0  0
    1.4173   -4.6589   -1.9602 H   0  0  0  0  0  0  0  0  0  0  0  0
    1.6355   -6.1741   -1.0583 H   0  0  0  0  0  0  0  0  0  0  0  0
    2.0106   -2.5263   -0.7088 H   0  0  0  0  0  0  0  0  0  0  0  0
    2.5426   -2.7238    0.9657 H   0  0  0  0  0  0  0  0  0  0  0  0
   -0.1604   -5.5641    0.5019 H   0  0  0  0  0  0  0  0  0  0  0  0
   -0.6525   -2.8896   -1.6348 C   0  0  0  0  0  0  0  0  0  0  0  0
   -1.1741   -1.9408   -1.5428 H   0  0  0  0  0  0  0  0  0  0  0  0
   -1.1990   -3.5066   -2.3439 H   0  0  0  0  0  0  0  0  0  0  0  0
    0.3298   -2.6898   -2.0525 H   0  0  0  0  0  0  0  0  0  0  0  0
   -2.0166   -3.6387    0.2795 C   0  0  0  0  0  0  0  0  0  0  0  0
   -2.6508   -4.1763   -0.4217 H   0  0  0  0  0  0  0  0  0  0  0  0
   -2.4168   -2.6356    0.3912 H   0  0  0  0  0  0  0  0  0  0  0  0
   -2.0587   -4.1448    1.2397 H   0  0  0  0  0  0  0  0  0  0  0  0
    0.1857   -3.0725    2.1213 C   0  0  0  0  0  0  0  0  0  0  0  0
    0.9963   -3.9133    2.8952 C   0  0  0  0  0  0  0  0  0  0  0  0
   -0.8580   -2.3933    2.7626 C   0  0  0  0  0  0  0  0  0  0  0  0
    0.7296   -4.1111    4.2363 C   0  0  0  0  0  0  0  0  0  0  0  0
    1.8055   -4.4444    2.4173 H   0  0  0  0  0  0  0  0  0  0  0  0
   -1.1155   -2.5920    4.1054 C   0  0  0  0  0  0  0  0  0  0  0  0
   -1.4492   -1.6845    2.2038 H   0  0  0  0  0  0  0  0  0  0  0  0
   -0.3312   -3.4611    4.8469 C   0  0  0  0  0  0  0  0  0  0  0  0
    1.3543   -4.7818    4.8091 H   0  0  0  0  0  0  0  0  0  0  0  0
   -1.9266   -2.0585    4.5781 H   0  0  0  0  0  0  0  0  0  0  0  0
   -0.5369   -3.6214    5.8944 H   0  0  0  0  0  0  0  0  0  0  0  0
    3.8215   -4.5015   -0.5686 S   0  0  0  0  0  0  0  0  0  0  0  0
    3.9159   -3.8205   -1.8424 O   0  0  0  0  0  0  0  0  0  0  0  0
    4.6275   -3.9719    0.5029 O   0  0  0  0  0  0  0  0  0  0  0  0
    4.1501   -6.2391   -0.7917 C   0  0  0  0  0  0  0  0  0  0  0  0
    4.2465   -7.0530    0.3219 C   0  0  0  0  0  0  0  0  0  0  0  0
    4.2496   -6.7579   -2.0687 C   0  0  0  0  0  0  0  0  0  0  0  0
    4.4382   -8.4115    0.1477 C   0  0  0  0  0  0  0  0  0  0  0  0
    4.1754   -6.6075    1.3010 H   0  0  0  0  0  0  0  0  0  0  0  0
    4.4426   -8.1185   -2.2337 C   0  0  0  0  0  0  0  0  0  0  0  0
    4.1762   -6.0854   -2.9091 H   0  0  0  0  0  0  0  0  0  0  0  0
    4.5319   -8.9617   -1.1299 C   0  0  0  0  0  0  0  0  0  0  0  0
    4.5124   -9.0562    1.0105 H   0  0  0  0  0  0  0  0  0  0  0  0
    4.5198   -8.5282   -3.2296 H   0  0  0  0  0  0  0  0  0  0  0  0
    4.7018  -10.4374   -1.3040 C   0  0  0  0  0  0  0  0  0  0  0  0
    5.4167  -10.8302   -0.5851 H   0  0  0  0  0  0  0  0  0  0  0  0
    5.0374  -10.6769   -2.3090 H   0  0  0  0  0  0  0  0  0  0  0  0
    3.7489  -10.9382   -1.1328 H   0  0  0  0  0  0  0  0  0  0  0  0
    2.2190   -4.4913   -0.0247 N   0  0  0  0  0  0  0  0  0  0  0  0
    2.2456   -0.3777    1.8669 O   0  0  0  0  0  0  0  0  0  0  0  0
    1.2238   -0.6700    4.4203 O   0  0  0  0  0  0  0  0  0  0  0  0
    1.0662    1.0318   -2.4445 O   0  0  0  0  0  0  0  0  0  0  0  0
   -1.0698    1.7311   -4.0376 O   0  0  0  0  0  0  0  0  0  0  0  0
    2.6897    0.0348    0.6490 C   0  0  0  0  0  0  0  0  0  0  0  0
    4.0327    0.1960    0.3228 C   0  0  0  0  0  0  0  0  0  0  0  0
    4.3879    0.6963   -0.9135 C   0  0  0  0  0  0  0  0  0  0  0  0
    3.4301    1.0331   -1.8502 C   0  0  0  0  0  0  0  0  0  0  0  0
    2.0854    0.8076   -1.5766 C   0  0  0  0  0  0  0  0  0  0  0  0
    1.7157    0.2941   -0.3253 C   0  0  0  0  0  0  0  0  0  0  0  0
    3.1279   -0.3158    2.9891 C   0  0  0  0  0  0  0  0  0  0  0  0
    3.7062   -1.6908    3.3125 C   0  0  0  0  0  0  0  0  0  0  0  0
    2.2824    0.2320    4.1716 C   0  0  0  0  0  0  0  0  0  0  0  0
    3.1588    0.3169    5.4115 C   0  0  0  0  0  0  0  0  0  0  0  0
    4.1830    1.2535    5.4849 C   0  0  0  0  0  0  0  0  0  0  0  0
    4.9943    1.3156    6.6039 C   0  0  0  0  0  0  0  0  0  0  0  0
    4.7879    0.4487    7.6644 C   0  0  0  0  0  0  0  0  0  0  0  0
    3.7614   -0.4773    7.6007 C   0  0  0  0  0  0  0  0  0  0  0  0
    2.9517   -0.5438    6.4803 C   0  0  0  0  0  0  0  0  0  0  0  0
    1.7151    1.6207    3.8831 C   0  0  0  0  0  0  0  0  0  0  0  0
    2.2481    2.5083    2.9581 C   0  0  0  0  0  0  0  0  0  0  0  0
    1.6731    3.7544    2.7689 C   0  0  0  0  0  0  0  0  0  0  0  0
    0.5667    4.1360    3.5058 C   0  0  0  0  0  0  0  0  0  0  0  0
    0.0333    3.2602    4.4364 C   0  0  0  0  0  0  0  0  0  0  0  0
    0.6032    2.0148    4.6204 C   0  0  0  0  0  0  0  0  0  0  0  0
    1.3150    1.7001   -3.6771 C   0  0  0  0  0  0  0  0  0  0  0  0
    1.3736    3.2110   -3.4612 C   0  0  0  0  0  0  0  0  0  0  0  0
    0.1484    1.2997   -4.6168 C   0  0  0  0  0  0  0  0  0  0  0  0
    0.3470    1.9970   -5.9534 C   0  0  0  0  0  0  0  0  0  0  0  0
   -0.4774    3.0420   -6.3440 C   0  0  0  0  0  0  0  0  0  0  0  0
   -0.2669    3.6845   -7.5523 C   0  0  0  0  0  0  0  0  0  0  0  0
    0.7693    3.2898   -8.3804 C   0  0  0  0  0  0  0  0  0  0  0  0
    1.5905    2.2415   -7.9987 C   0  0  0  0  0  0  0  0  0  0  0  0
    1.3795    1.5960   -6.7938 C   0  0  0  0  0  0  0  0  0  0  0  0
    0.0890   -0.2050   -4.8711 C   0  0  0  0  0  0  0  0  0  0  0  0
    1.1144   -1.0941   -4.5807 C   0  0  0  0  0  0  0  0  0  0  0  0
    0.9767   -2.4424   -4.8696 C   0  0  0  0  0  0  0  0  0  0  0  0
   -0.1825   -2.9199   -5.4535 C   0  0  0  0  0  0  0  0  0  0  0  0
   -1.2107   -2.0393   -5.7471 C   0  0  0  0  0  0  0  0  0  0  0  0
   -1.0735   -0.6951   -5.4584 C   0  0  0  0  0  0  0  0  0  0  0  0
    0.7697   -0.8178    3.5794 H   0  0  0  0  0  0  0  0  0  0  0  0
   -1.0886    1.3836   -3.1363 H   0  0  0  0  0  0  0  0  0  0  0  0
    4.8067   -0.0767    1.0213 H   0  0  0  0  0  0  0  0  0  0  0  0
    5.4322    0.8317   -1.1503 H   0  0  0  0  0  0  0  0  0  0  0  0
    3.7459    1.4490   -2.7926 H   0  0  0  0  0  0  0  0  0  0  0  0
    3.9436    0.3858    2.7963 H   0  0  0  0  0  0  0  0  0  0  0  0
    2.9114   -2.3476    3.6578 H   0  0  0  0  0  0  0  0  0  0  0  0
    4.4528   -1.5946    4.0961 H   0  0  0  0  0  0  0  0  0  0  0  0
    4.1718   -2.1312    2.4316 H   0  0  0  0  0  0  0  0  0  0  0  0
    4.3441    1.9423    4.6686 H   0  0  0  0  0  0  0  0  0  0  0  0
    5.7900    2.0450    6.6475 H   0  0  0  0  0  0  0  0  0  0  0  0
    5.4231    0.4986    8.5367 H   0  0  0  0  0  0  0  0  0  0  0  0
    3.5899   -1.1543    8.4248 H   0  0  0  0  0  0  0  0  0  0  0  0
    2.1505   -1.2626    6.4213 H   0  0  0  0  0  0  0  0  0  0  0  0
    3.1082    2.2467    2.3592 H   0  0  0  0  0  0  0  0  0  0  0  0
    2.0975    4.4270    2.0370 H   0  0  0  0  0  0  0  0  0  0  0  0
    0.1237    5.1094    3.3548 H   0  0  0  0  0  0  0  0  0  0  0  0
   -0.8291    3.5468    5.0201 H   0  0  0  0  0  0  0  0  0  0  0  0
    0.1889    1.3233    5.3392 H   0  0  0  0  0  0  0  0  0  0  0  0
    2.2506    1.3549   -4.1286 H   0  0  0  0  0  0  0  0  0  0  0  0
    0.3938    3.5766   -3.1630 H   0  0  0  0  0  0  0  0  0  0  0  0
    1.6747    3.7062   -4.3797 H   0  0  0  0  0  0  0  0  0  0  0  0
    2.0892    3.4432   -2.6751 H   0  0  0  0  0  0  0  0  0  0  0  0
   -1.2820    3.3446   -5.6929 H   0  0  0  0  0  0  0  0  0  0  0  0
   -0.9139    4.4985   -7.8445 H   0  0  0  0  0  0  0  0  0  0  0  0
    0.9364    3.7937   -9.3211 H   0  0  0  0  0  0  0  0  0  0  0  0
    2.3987    1.9236   -8.6414 H   0  0  0  0  0  0  0  0  0  0  0  0
    2.0170    0.7719   -6.5074 H   0  0  0  0  0  0  0  0  0  0  0  0
    2.0332   -0.7647   -4.1187 H   0  0  0  0  0  0  0  0  0  0  0  0
    1.7882   -3.1162   -4.6309 H   0  0  0  0  0  0  0  0  0  0  0  0
   -0.2840   -3.9717   -5.6777 H   0  0  0  0  0  0  0  0  0  0  0  0
   -2.1204   -2.3995   -6.2045 H   0  0  0  0  0  0  0  0  0  0  0  0
   -1.8714   -0.0020   -5.6815 H   0  0  0  0  0  0  0  0  0  0  0  0
    0.0000   -0.0000    0.0000 S   0  0  0  0  0  0  0  0  0  0  0  0
    0.1998   -1.3990    0.3248 H   0  0  0  0  0  0  0  0  0  0  0  0
M  END
