 xtb: 6.6.1 (8d0f1dd)
          06202421043D

123129  0     0  0            999 V2000
    0.4216   -2.9523    0.6855 C   0  0  0  0  0  0  0  0  0  0  0  0
   -0.5693   -3.5998   -0.2855 C   0  0  0  0  0  0  0  0  0  0  0  0
   -0.8233   -5.0226    0.2746 C   0  0  0  0  0  0  0  0  0  0  0  0
   -1.2892   -5.0174    1.7249 C   0  0  0  0  0  0  0  0  0  0  0  0
   -0.0605   -2.9934    2.1114 C   0  0  0  0  0  0  0  0  0  0  0  0
   -1.5753   -5.5209   -0.3383 H   0  0  0  0  0  0  0  0  0  0  0  0
   -2.2586   -4.5106    1.8318 H   0  0  0  0  0  0  0  0  0  0  0  0
   -1.3992   -6.0437    2.0823 H   0  0  0  0  0  0  0  0  0  0  0  0
   -0.9959   -2.4258    2.2280 H   0  0  0  0  0  0  0  0  0  0  0  0
    0.6762   -2.5672    2.7887 H   0  0  0  0  0  0  0  0  0  0  0  0
    0.1077   -5.5891    0.2151 H   0  0  0  0  0  0  0  0  0  0  0  0
   -1.8983   -2.8362   -0.3786 C   0  0  0  0  0  0  0  0  0  0  0  0
   -1.7510   -1.8875   -0.8890 H   0  0  0  0  0  0  0  0  0  0  0  0
   -2.6147   -3.4206   -0.9513 H   0  0  0  0  0  0  0  0  0  0  0  0
   -2.3307   -2.6287    0.5951 H   0  0  0  0  0  0  0  0  0  0  0  0
   -0.0409   -3.7574   -1.7135 C   0  0  0  0  0  0  0  0  0  0  0  0
   -0.7595   -4.3294   -2.2960 H   0  0  0  0  0  0  0  0  0  0  0  0
    0.0766   -2.7897   -2.1929 H   0  0  0  0  0  0  0  0  0  0  0  0
    0.9099   -4.2829   -1.7318 H   0  0  0  0  0  0  0  0  0  0  0  0
    1.8564   -3.1098    0.4856 C   0  0  0  0  0  0  0  0  0  0  0  0
    2.6356   -3.7791    1.4417 C   0  0  0  0  0  0  0  0  0  0  0  0
    2.5153   -2.5850   -0.6364 C   0  0  0  0  0  0  0  0  0  0  0  0
    3.9942   -3.9442    1.2610 C   0  0  0  0  0  0  0  0  0  0  0  0
    2.1538   -4.2030    2.3089 H   0  0  0  0  0  0  0  0  0  0  0  0
    3.8758   -2.7428   -0.8041 C   0  0  0  0  0  0  0  0  0  0  0  0
    1.9590   -2.0178   -1.3650 H   0  0  0  0  0  0  0  0  0  0  0  0
    4.6253   -3.4275    0.1395 C   0  0  0  0  0  0  0  0  0  0  0  0
    4.5677   -4.4813    2.0035 H   0  0  0  0  0  0  0  0  0  0  0  0
    4.3584   -2.3222   -1.6742 H   0  0  0  0  0  0  0  0  0  0  0  0
    5.6895   -3.5527    0.0059 H   0  0  0  0  0  0  0  0  0  0  0  0
   -0.6802   -4.3848    4.1887 S   0  0  0  0  0  0  0  0  0  0  0  0
   -1.9183   -3.6742    4.4139 O   0  0  0  0  0  0  0  0  0  0  0  0
    0.4834   -3.9138    4.8951 O   0  0  0  0  0  0  0  0  0  0  0  0
   -0.9256   -6.1211    4.5174 C   0  0  0  0  0  0  0  0  0  0  0  0
    0.1500   -6.9855    4.4223 C   0  0  0  0  0  0  0  0  0  0  0  0
   -2.1897   -6.5834    4.8283 C   0  0  0  0  0  0  0  0  0  0  0  0
   -0.0525   -8.3368    4.6327 C   0  0  0  0  0  0  0  0  0  0  0  0
    1.1227   -6.5847    4.1866 H   0  0  0  0  0  0  0  0  0  0  0  0
   -2.3830   -7.9379    5.0404 C   0  0  0  0  0  0  0  0  0  0  0  0
   -2.9985   -5.8726    4.8972 H   0  0  0  0  0  0  0  0  0  0  0  0
   -1.3206   -8.8302    4.9391 C   0  0  0  0  0  0  0  0  0  0  0  0
    0.7784   -9.0219    4.5561 H   0  0  0  0  0  0  0  0  0  0  0  0
   -3.3699   -8.3030    5.2822 H   0  0  0  0  0  0  0  0  0  0  0  0
   -1.5217  -10.2972    5.1528 C   0  0  0  0  0  0  0  0  0  0  0  0
   -0.9597  -10.6290    6.0245 H   0  0  0  0  0  0  0  0  0  0  0  0
   -2.5714  -10.5298    5.3062 H   0  0  0  0  0  0  0  0  0  0  0  0
   -1.1580  -10.8569    4.2930 H   0  0  0  0  0  0  0  0  0  0  0  0
   -0.2857   -4.3717    2.5452 N   0  0  0  0  0  0  0  0  0  0  0  0
    1.8988   -0.4374    2.2216 O   0  0  0  0  0  0  0  0  0  0  0  0
    0.1808   -0.2961    4.3175 O   0  0  0  0  0  0  0  0  0  0  0  0
    1.3680    1.3961   -2.0414 O   0  0  0  0  0  0  0  0  0  0  0  0
   -0.5870    2.5706   -3.5673 O   0  0  0  0  0  0  0  0  0  0  0  0
    2.5242    0.0953    1.1340 C   0  0  0  0  0  0  0  0  0  0  0  0
    3.8951    0.3191    1.0525 C   0  0  0  0  0  0  0  0  0  0  0  0
    4.4312    0.9216   -0.0684 C   0  0  0  0  0  0  0  0  0  0  0  0
    3.6277    1.3269   -1.1188 C   0  0  0  0  0  0  0  0  0  0  0  0
    2.2635    1.0691   -1.0780 C   0  0  0  0  0  0  0  0  0  0  0  0
    1.7211    0.4080    0.0330 C   0  0  0  0  0  0  0  0  0  0  0  0
    2.4540   -0.2216    3.5211 C   0  0  0  0  0  0  0  0  0  0  0  0
    2.8777   -1.5446    4.1522 C   0  0  0  0  0  0  0  0  0  0  0  0
    1.3538    0.4981    4.3542 C   0  0  0  0  0  0  0  0  0  0  0  0
    1.8247    0.6193    5.7934 C   0  0  0  0  0  0  0  0  0  0  0  0
    2.8185    1.5306    6.1306 C   0  0  0  0  0  0  0  0  0  0  0  0
    3.2702    1.6202    7.4351 C   0  0  0  0  0  0  0  0  0  0  0  0
    2.7308    0.8053    8.4167 C   0  0  0  0  0  0  0  0  0  0  0  0
    1.7362   -0.0987    8.0858 C   0  0  0  0  0  0  0  0  0  0  0  0
    1.2850   -0.1935    6.7806 C   0  0  0  0  0  0  0  0  0  0  0  0
    1.0318    1.8919    3.8152 C   0  0  0  0  0  0  0  0  0  0  0  0
    1.9027    2.6646    3.0583 C   0  0  0  0  0  0  0  0  0  0  0  0
    1.5222    3.9188    2.6093 C   0  0  0  0  0  0  0  0  0  0  0  0
    0.2744    4.4272    2.9200 C   0  0  0  0  0  0  0  0  0  0  0  0
   -0.5958    3.6710    3.6871 C   0  0  0  0  0  0  0  0  0  0  0  0
   -0.2191    2.4163    4.1270 C   0  0  0  0  0  0  0  0  0  0  0  0
    1.7545    2.2063   -3.1448 C   0  0  0  0  0  0  0  0  0  0  0  0
    1.9340    3.6648   -2.7274 C   0  0  0  0  0  0  0  0  0  0  0  0
    0.5925    2.0590   -4.1645 C   0  0  0  0  0  0  0  0  0  0  0  0
    0.9158    2.8706   -5.4078 C   0  0  0  0  0  0  0  0  0  0  0  0
    0.2256    4.0395   -5.6943 C   0  0  0  0  0  0  0  0  0  0  0  0
    0.5367    4.7768   -6.8239 C   0  0  0  0  0  0  0  0  0  0  0  0
    1.5411    4.3538   -7.6769 C   0  0  0  0  0  0  0  0  0  0  0  0
    2.2300    3.1848   -7.3980 C   0  0  0  0  0  0  0  0  0  0  0  0
    1.9185    2.4452   -6.2714 C   0  0  0  0  0  0  0  0  0  0  0  0
    0.3567    0.6097   -4.5814 C   0  0  0  0  0  0  0  0  0  0  0  0
    1.2765   -0.4158   -4.4119 C   0  0  0  0  0  0  0  0  0  0  0  0
    0.9756   -1.7025   -4.8285 C   0  0  0  0  0  0  0  0  0  0  0  0
   -0.2417   -1.9808   -5.4239 C   0  0  0  0  0  0  0  0  0  0  0  0
   -1.1635   -0.9626   -5.6005 C   0  0  0  0  0  0  0  0  0  0  0  0
   -0.8640    0.3202   -5.1828 C   0  0  0  0  0  0  0  0  0  0  0  0
   -0.0212   -0.4456    3.3852 H   0  0  0  0  0  0  0  0  0  0  0  0
   -0.7043    2.0955   -2.7342 H   0  0  0  0  0  0  0  0  0  0  0  0
    4.5455    0.0173    1.8581 H   0  0  0  0  0  0  0  0  0  0  0  0
    5.4958    1.0916   -0.1204 H   0  0  0  0  0  0  0  0  0  0  0  0
    4.0725    1.8242   -1.9650 H   0  0  0  0  0  0  0  0  0  0  0  0
    3.3265    0.4325    3.4597 H   0  0  0  0  0  0  0  0  0  0  0  0
    2.0123   -2.1327    4.4526 H   0  0  0  0  0  0  0  0  0  0  0  0
    3.4820   -1.3497    5.0341 H   0  0  0  0  0  0  0  0  0  0  0  0
    3.4617   -2.1150    3.4334 H   0  0  0  0  0  0  0  0  0  0  0  0
    3.2375    2.1762    5.3729 H   0  0  0  0  0  0  0  0  0  0  0  0
    4.0455    2.3296    7.6852 H   0  0  0  0  0  0  0  0  0  0  0  0
    3.0846    0.8760    9.4347 H   0  0  0  0  0  0  0  0  0  0  0  0
    1.3092   -0.7386    8.8442 H   0  0  0  0  0  0  0  0  0  0  0  0
    0.5167   -0.9023    6.5138 H   0  0  0  0  0  0  0  0  0  0  0  0
    2.8863    2.3071    2.7939 H   0  0  0  0  0  0  0  0  0  0  0  0
    2.2123    4.4981    2.0126 H   0  0  0  0  0  0  0  0  0  0  0  0
   -0.0173    5.4057    2.5683 H   0  0  0  0  0  0  0  0  0  0  0  0
   -1.5719    4.0568    3.9426 H   0  0  0  0  0  0  0  0  0  0  0  0
   -0.8971    1.8182    4.7186 H   0  0  0  0  0  0  0  0  0  0  0  0
    2.6807    1.8314   -3.5959 H   0  0  0  0  0  0  0  0  0  0  0  0
    0.9724    4.0825   -2.4381 H   0  0  0  0  0  0  0  0  0  0  0  0
    2.3337    4.2380   -3.5590 H   0  0  0  0  0  0  0  0  0  0  0  0
    2.6130    3.7344   -1.8810 H   0  0  0  0  0  0  0  0  0  0  0  0
   -0.5564    4.3622   -5.0253 H   0  0  0  0  0  0  0  0  0  0  0  0
   -0.0077    5.6856   -7.0355 H   0  0  0  0  0  0  0  0  0  0  0  0
    1.7853    4.9300   -8.5574 H   0  0  0  0  0  0  0  0  0  0  0  0
    3.0115    2.8455   -8.0624 H   0  0  0  0  0  0  0  0  0  0  0  0
    2.4506    1.5275   -6.0675 H   0  0  0  0  0  0  0  0  0  0  0  0
    2.2335   -0.2350   -3.9469 H   0  0  0  0  0  0  0  0  0  0  0  0
    1.6998   -2.4912   -4.6837 H   0  0  0  0  0  0  0  0  0  0  0  0
   -0.4709   -2.9861   -5.7451 H   0  0  0  0  0  0  0  0  0  0  0  0
   -2.1175   -1.1658   -6.0645 H   0  0  0  0  0  0  0  0  0  0  0  0
   -1.5797    1.1189   -5.3121 H   0  0  0  0  0  0  0  0  0  0  0  0
   -0.0000    0.0000    0.0000 S   0  0  0  0  0  0  0  0  0  0  0  0
    0.1998   -1.3990    0.3248 H   0  0  0  0  0  0  0  0  0  0  0  0
  1  2  1  0  0  0  0
  2  3  1  0  0  0  0
  3  4  1  0  0  0  0
  1  5  1  0  0  0  0
  3  6  1  0  0  0  0
  4  7  1  0  0  0  0
  4  8  1  0  0  0  0
  5  9  1  0  0  0  0
  5 10  1  0  0  0  0
  3 11  1  0  0  0  0
  2 12  1  0  0  0  0
 12 13  1  0  0  0  0
 12 14  1  0  0  0  0
 12 15  1  0  0  0  0
  2 16  1  0  0  0  0
 16 17  1  0  0  0  0
 16 18  1  0  0  0  0
 16 19  1  0  0  0  0
  1 20  1  0  0  0  0
 20 21  4  0  0  0  0
 20 22  4  0  0  0  0
 21 23  4  0  0  0  0
 21 24  1  0  0  0  0
 22 25  4  0  0  0  0
 22 26  1  0  0  0  0
 23 27  4  0  0  0  0
 25 27  4  0  0  0  0
 23 28  1  0  0  0  0
 25 29  1  0  0  0  0
 27 30  1  0  0  0  0
 31 32  2  0  0  0  0
 31 33  2  0  0  0  0
 31 34  1  0  0  0  0
 34 35  4  0  0  0  0
 34 36  4  0  0  0  0
 35 37  4  0  0  0  0
 35 38  1  0  0  0  0
 36 39  4  0  0  0  0
 36 40  1  0  0  0  0
 37 41  4  0  0  0  0
 39 41  4  0  0  0  0
 37 42  1  0  0  0  0
 39 43  1  0  0  0  0
 41 44  1  0  0  0  0
 44 45  1  0  0  0  0
 44 46  1  0  0  0  0
 44 47  1  0  0  0  0
  4 48  1  0  0  0  0
  5 48  1  0  0  0  0
 31 48  1  0  0  0  0
 49 53  1  0  0  0  0
 53 54  4  0  0  0  0
 54 55  4  0  0  0  0
 55 56  4  0  0  0  0
 51 57  1  0  0  0  0
 56 57  4  0  0  0  0
 53 58  4  0  0  0  0
 57 58  4  0  0  0  0
 49 59  1  0  0  0  0
 59 60  1  0  0  0  0
 50 61  1  0  0  0  0
 59 61  1  0  0  0  0
 61 62  1  0  0  0  0
 62 63  4  0  0  0  0
 63 64  4  0  0  0  0
 64 65  4  0  0  0  0
 65 66  4  0  0  0  0
 62 67  4  0  0  0  0
 66 67  4  0  0  0  0
 61 68  1  0  0  0  0
 68 69  4  0  0  0  0
 69 70  4  0  0  0  0
 70 71  4  0  0  0  0
 71 72  4  0  0  0  0
 68 73  4  0  0  0  0
 72 73  4  0  0  0  0
 51 74  1  0  0  0  0
 74 75  1  0  0  0  0
 52 76  1  0  0  0  0
 74 76  1  0  0  0  0
 76 77  1  0  0  0  0
 77 78  4  0  0  0  0
 78 79  4  0  0  0  0
 79 80  4  0  0  0  0
 80 81  4  0  0  0  0
 77 82  4  0  0  0  0
 81 82  4  0  0  0  0
 76 83  1  0  0  0  0
 83 84  4  0  0  0  0
 84 85  4  0  0  0  0
 85 86  4  0  0  0  0
 86 87  4  0  0  0  0
 83 88  4  0  0  0  0
 87 88  4  0  0  0  0
 50 89  1  0  0  0  0
 52 90  1  0  0  0  0
 54 91  1  0  0  0  0
 55 92  1  0  0  0  0
 56 93  1  0  0  0  0
 59 94  1  0  0  0  0
 60 95  1  0  0  0  0
 60 96  1  0  0  0  0
 60 97  1  0  0  0  0
 63 98  1  0  0  0  0
 64 99  1  0  0  0  0
 65100  1  0  0  0  0
 66101  1  0  0  0  0
 67102  1  0  0  0  0
 69103  1  0  0  0  0
 70104  1  0  0  0  0
 71105  1  0  0  0  0
 72106  1  0  0  0  0
 73107  1  0  0  0  0
 74108  1  0  0  0  0
 75109  1  0  0  0  0
 75110  1  0  0  0  0
 75111  1  0  0  0  0
 78112  1  0  0  0  0
 79113  1  0  0  0  0
 80114  1  0  0  0  0
 81115  1  0  0  0  0
 82116  1  0  0  0  0
 84117  1  0  0  0  0
 85118  1  0  0  0  0
 86119  1  0  0  0  0
 87120  1  0  0  0  0
 88121  1  0  0  0  0
 58122  1  0  0  0  0
122123  1  0  0  0  0
M  END
